55PasiveNets/SOURCE_1_VLN_Node.Txt

LINE-GROUND and LINE-LINE VOLTAGES BY BUS & NODE

Bus  Node    VLN (kV)   Angle      pu     Base kV    Node-Node   VLL (kV)  Angle      pu

N1 . 1       7.0013 /_    0.0   0.97246    12.470        1-2     12.256 /_   29.6   0.98286
   - 2        7.069 /_ -121.2   0.98187    12.470        2-3     12.252 /_  -90.2   0.98251
   - 3        7.175 /_  120.2   0.99659    12.470        3-1     12.288 /_  149.7    0.9854
   - 4     0.086268 /_  151.3  0.011982    12.470
N2 . 1       6.6609 /_   -1.6   0.92518    12.470        1-2     11.777 /_   27.8    0.9444
   - 2       6.8114 /_ -123.5   0.94609    12.470        2-3     11.779 /_  -92.0   0.94462
   - 3         6.95 /_  118.8   0.96533    12.470        3-1     11.811 /_  147.9   0.94716
   - 4     0.086641 /_  -28.6  0.012034    12.470
